18
H.o.F. = -148.17326384 KJ
C               0.03337    -0.03236     0.00674
C               1.53724     0.04226     0.16640
C               1.02860     2.50454     0.03826
C               2.06924     1.42174    -0.17687
C               0.12240     2.17893     1.20680
C              -0.67458     0.91073     0.96124
H              -0.85222     0.39368     1.94049
H              -1.68098     1.16965     0.53965
H              -0.57714     3.03478     1.39216
H               0.74847     2.05494     2.12977
H               1.53874     3.48638     0.21706
H               0.40639     2.61623    -0.88878
H               2.40453     1.44466    -1.24675
H               2.97153     1.63450     0.45436
H               1.80383    -0.20861     1.22716
H               2.02516    -0.72471    -0.48925
H              -0.23708     0.23077    -1.04997
H              -0.31481    -1.08222     0.18789
18
H.o.F. = -148.01929264 KJ
C               0.02852    -0.02491     0.00197
C               1.53437     0.03439     0.14627
C               1.02736     2.49963     0.02952
C               2.07696     1.42020    -0.15266
C               0.11078     2.19289     1.19474
C              -0.66197     0.90375     0.98220
H              -0.78651     0.38381     1.96826
H              -1.69120     1.13492     0.60149
H              -0.60526     3.04238     1.34353
H               0.72647     2.11029     2.12929
H               1.53021     3.48783     0.19439
H               0.41544     2.58951    -0.90669
H               2.46115     1.45992    -1.20553
H               2.94886     1.62628     0.52222
H               1.81069    -0.25759     1.19397
H               2.00768    -0.71316    -0.54193
H              -0.25255     0.26015    -1.04626
H              -0.32575    -1.07550     0.16732
18
H.o.F. = -147.78059544 KJ
C               0.02362    -0.01849    -0.00167
C               1.53148     0.02682     0.12489
C               1.02713     2.49536     0.02177
C               2.08360     1.41820    -0.12805
C               0.09822     2.20695     1.18179
C              -0.64827     0.89720     1.00278
H              -0.71945     0.37645     1.99380
H              -1.69791     1.10046     0.66408
H              -0.63528     3.04757     1.29174
H               0.70059     2.16802     2.12780
H               1.52462     3.48827     0.17546
H               0.42708     2.56678    -0.92362
H               2.51587     1.47422    -1.16138
H               2.92331     1.61623     0.58893
H               1.81908    -0.30798     1.15662
H               1.98954    -0.69812    -0.59720
H              -0.26955     0.28513    -1.04128
H              -0.33579    -1.06937     0.15147
18
H.o.F. = -147.50909568 KJ
C               0.01895    -0.01281    -0.00384
C               1.52850     0.01984     0.10231
C               1.02793     2.49132     0.01531
C               2.08907     1.41569    -0.10327
C               0.08478     2.22083     1.16786
C              -0.63360     0.89125     1.02278
H              -0.65128     0.37229     2.01724
H              -1.70111     1.06532     0.72627
H              -0.66612     3.05054     1.23656
H               0.67068     2.22678     2.12492
H               1.52148     3.48775     0.15988
H               0.44098     2.54669    -0.93933
H               2.56805     1.48876    -1.11472
H               2.89504     1.60362     0.65415
H               1.82906    -0.35837     1.11518
H               1.96978    -0.67985    -0.65447
H              -0.28757     0.30697    -1.03470
H              -0.34494    -1.06368     0.13976
18
H.o.F. = -147.24872536 KJ
C               0.01435    -0.00814    -0.00462
C               1.52563     0.01344     0.07854
C               1.02981     2.48778     0.01006
C               2.09386     1.41259    -0.07851
C               0.07030     2.23451     1.15310
C              -0.61839     0.88595     1.04244
H              -0.58316     0.37109     2.03868
H              -1.70117     1.03132     0.78864
H              -0.69835     3.05052     1.17864
H               0.63652     2.28669     2.12058
H               1.52060     3.48671     0.14754
H               0.45711     2.52927    -0.95391
H               2.61808     1.50179    -1.06602
H               2.86496     1.58886     0.71721
H               1.84064    -0.40880     1.06941
H               1.94937    -0.65772    -0.71351
H              -0.30659     0.32566    -1.02664
H              -0.35319    -1.05882     0.13178
18
H.o.F. = -147.0343372 KJ
C               0.00989    -0.00438    -0.00402
C               1.52237     0.00800     0.05384
C               1.03274     2.48468     0.00604
C               2.09753     1.40900    -0.05360
C               0.05528     2.24762     1.13719
C              -0.60226     0.88122     1.06153
H              -0.51443     0.37308     2.05807
H              -1.69774     0.99754     0.85059
H              -0.73070     3.04733     1.11752
H               0.59861     2.34681     2.11408
H               1.52226     3.48495     0.13943
H               0.47573     2.51525    -0.96749
H               2.66540     1.51422    -1.01514
H               2.83255     1.57161     0.77846
H               1.85316    -0.45824     1.01953
H               1.92717    -0.63165    -0.77362
H              -0.32709     0.34045    -1.01719
H              -0.35996    -1.05490     0.12856
18
H.o.F. = -146.89024024 KJ
C               0.00519    -0.00211    -0.00249
C               1.51871     0.00354     0.02859
C               1.03671     2.48271     0.00289
C               2.10020     1.40497    -0.02863
C               0.03999     2.26005     1.12035
C              -0.58535     0.87703     1.08007
H              -0.44471     0.37790     2.07519
H              -1.69102     0.96490     0.91326
H              -0.76270     3.04063     1.05546
H               0.55822     2.40585     2.10499
H               1.52601     3.48342     0.13452
H               0.49649     2.50467    -0.98028
H               2.71090     1.52492    -0.96175
H               2.79743     1.55228     0.83817
H               1.86561    -0.50553     0.96659
H               1.90452    -0.60200    -0.83299
H              -0.34889     0.35150    -1.00674
H              -0.36586    -1.05248     0.12869
18
H.o.F. = -146.83187344 KJ
C              -0.00060     0.00025     0.00032
C               1.51339    -0.00035    -0.00336
C               1.04232     2.48044    -0.00032
C               2.10190     1.39912     0.00328
C               0.02089     2.27419     1.09801
C              -0.56250     0.87256     1.10272
H              -0.35562     0.38756     2.09334
H              -1.67742     0.92576     0.99256
H              -0.80174     3.02679     0.97592
H               0.50458     2.47815     2.08985
H               1.53210     3.48101     0.13105
H               0.52424     2.49310    -0.99548
H               2.76476     1.53574    -0.89114
H               2.74934     1.52539     0.91114
H               1.88076    -0.56169     0.89623
H               1.87487    -0.55935    -0.90608
H              -0.37701     0.36325    -0.99239
H              -0.37214    -1.04997     0.13170
18
H.o.F. = -146.8899892 KJ
C              -0.00496     0.00215     0.00288
C               1.50916    -0.00252    -0.02855
C               1.04685     2.47845    -0.00248
C               2.10257     1.39391     0.02850
C               0.00573     2.28450     1.08010
C              -0.54390     0.86969     1.12032
H              -0.28522     0.39758     2.10497
H              -1.66324     0.89628     1.05536
H              -0.83116     3.01243     0.91336
H               0.46061     2.53351     2.07521
H               1.53699     3.47881     0.12871
H               0.54644     2.48370    -1.00672
H               2.80492     1.54241    -0.83318
H               2.70906     1.50274     0.96641
H               1.89211    -0.60334     0.83836
H               1.85117    -0.52266    -0.96158
H              -0.39883     0.37247    -0.98031
H              -0.37684    -1.04787     0.13450
18
H.o.F. = -147.0339188 KJ
C              -0.00913     0.00361     0.00604
C               1.50441    -0.00344    -0.05353
C               1.05176     2.47669    -0.00403
C               2.10195     1.38817     0.05377
C              -0.00910     2.29365     1.06156
C              -0.52433     0.86748     1.13716
H              -0.21483     0.41008     2.11407
H              -1.64563     0.86874     1.11740
H              -0.85916     2.99438     0.85070
H               0.41526     2.58664     2.05811
H               1.54283     3.47631     0.12853
H               0.56958     2.47584    -1.01717
H               2.84196     1.54700    -0.77379
H               2.66656     1.47850     1.01938
H               1.90292    -0.64197     0.77863
H               1.82695    -0.48267    -1.01499
H              -0.42094     0.37987    -0.96751
H              -0.38053    -1.04626     0.13945
18
H.o.F. = -147.24818144 KJ
C              -0.01340     0.00353     0.01007
C               1.49928    -0.00333    -0.07844
C               1.05756     2.47612    -0.00464
C               2.10035     1.38204     0.07848
C              -0.02376     2.30185     1.04248
C              -0.50446     0.86593     1.15307
H              -0.14539     0.42511     2.12058
H              -1.62526     0.84344     1.17849
H              -0.88566     2.97321     0.78879
H               0.36859     2.63710     2.03872
H               1.55037     3.47421     0.13175
H               0.59448     2.47156    -1.02663
H               2.87616     1.54942    -0.71364
H               2.62246     1.45283     1.06930
H               1.91332    -0.67721     0.71735
H               1.80267    -0.44016    -1.06591
H              -0.44397     0.38337    -0.95392
H              -0.38297    -1.04631     0.14752
18
H.o.F. = -147.50846808 KJ
C              -0.01725     0.00240     0.01531
C               1.49372    -0.00209    -0.10321
C               1.06412     2.47612    -0.00386
C               2.09778     1.37551     0.10226
C              -0.03818     2.30900     1.02282
C              -0.48456     0.86518     1.16783
H              -0.07870     0.44266     2.12493
H              -1.60273     0.82040     1.23641
H              -0.90990     2.94937     0.72644
H               0.32006     2.68489     2.01728
H               1.55959     3.47174     0.13967
H               0.62112     2.47101    -1.03470
H               2.90626     1.55034    -0.65458
H               2.57833     1.42579     1.11509
H               1.92384    -0.70904     0.65428
H               1.77694    -0.39531    -1.11462
H              -0.46771     0.38265    -0.93935
H              -0.38307    -1.04766     0.15990
18
H.o.F. = -147.77996784 KJ
C              -0.02069     0.00013     0.02177
C               1.48809     0.00006    -0.12800
C               1.07144     2.47675    -0.00170
C               2.09490     1.36849     0.12484
C              -0.05271     2.31532     1.00283
C              -0.46524     0.86530     1.18176
H              -0.01580     0.46244     2.12780
H              -1.57901     0.80047     1.29160
H              -0.93274     2.92250     0.66426
H               0.26937     2.73066     1.99386
H               1.57005     3.46918     0.15136
H               0.64932     2.47341    -1.04128
H               2.93315     1.54904    -0.59730
H               2.53537     1.39764     1.15655
H               1.93463    -0.73805     0.58905
H               1.75080    -0.34787    -1.16129
H              -0.49180     0.37850    -0.92364
H              -0.38125    -1.05027     0.17548
18
H.o.F. = -148.01879056 KJ
C              -0.02358    -0.00302     0.02952
C               1.48202     0.00340    -0.15261
C               1.07945     2.47775     0.00193
C               2.09151     1.36113     0.14623
C              -0.06698     2.32052     0.98226
C              -0.44640     0.86617     1.19471
H               0.04356     0.48439     2.12930
H              -1.55428     0.78265     1.34339
H              -0.95266     2.89359     0.60168
H               0.21717     2.77338     1.96832
H               1.58146     3.46631     0.16720
H               0.67905     2.47876    -1.04626
H               2.95661     1.54661    -0.54202
H               2.49351     1.36834     1.19391
H               1.94535    -0.76335     0.52235
H               1.72269    -0.29878    -1.20544
H              -0.51617     0.37091    -0.90672
H              -0.37703    -1.05396     0.19440
18
H.o.F. = -148.17297096 KJ
C              -0.02621    -0.00733     0.03826
C               1.47552     0.00783    -0.17681
C               1.08816     2.47951     0.00670
C               2.08789     1.35357     0.16636
C              -0.08080     2.32462     0.96128
C              -0.42830     0.86764     1.20678
H               0.09849     0.50742     2.12978
H              -1.52917     0.76788     1.39204
H              -0.97031     2.86197     0.53982
H               0.16411     2.81339     1.94055
H               1.59391     3.46321     0.18777
H               0.71087     2.48830    -1.04999
H               2.97708     1.54223    -0.48934
H               2.45372     1.33896     1.22710
H               1.95536    -0.78529     0.45449
H               1.69395    -0.24770    -1.24667
H              -0.54157     0.35870    -0.88881
H              -0.37003    -1.05902     0.21704
